
  EPA STORM WATER MANAGEMENT MODEL - VERSION 5.1 (Build 5.1.013)
  --------------------------------------------------------------

  
  ERROR 205: invalid keyword NO at line 26 of [OPTION] section:
   NORMAL_FLOW_LIMITED

  Analysis begun on:  Thu Mar 25 09:54:55 2021
  Analysis ended on:  Thu Mar 25 09:54:55 2021
  Total elapsed time: < 1 sec