
  EPA STORM WATER MANAGEMENT MODEL - VERSION 5.1 (Build 5.1.013)
  --------------------------------------------------------------

  
  ERROR 187: LID area exceeds total area for Subcatchment FS10.

  Analysis begun on:  Wed Feb 17 15:31:52 2021
  Analysis ended on:  Wed Feb 17 15:31:52 2021
  Total elapsed time: < 1 sec