
  EPA STORM WATER MANAGEMENT MODEL - VERSION 5.1 (Build 5.1.013)
  --------------------------------------------------------------

  
  ERROR 187: LID area exceeds total area for Subcatchment FS10.

  Analysis begun on:  Thu Jan 21 14:16:39 2021
  Analysis ended on:  Thu Jan 21 14:16:40 2021
  Total elapsed time: 00:00:01